*Heading
** Generated Abaqus .inp for square plate 10 x 10 with 50 divisions per edge
*Node
1, 0.000000, 0.000000, 0.0
2, 0.200000, 0.000000, 0.0
3, 0.400000, 0.000000, 0.0
4, 0.600000, 0.000000, 0.0
5, 0.800000, 0.000000, 0.0
6, 1.000000, 0.000000, 0.0
7, 1.200000, 0.000000, 0.0
8, 1.400000, 0.000000, 0.0
9, 1.600000, 0.000000, 0.0
10, 1.800000, 0.000000, 0.0
11, 2.000000, 0.000000, 0.0
12, 2.200000, 0.000000, 0.0
13, 2.400000, 0.000000, 0.0
14, 2.600000, 0.000000, 0.0
15, 2.800000, 0.000000, 0.0
16, 3.000000, 0.000000, 0.0
17, 3.200000, 0.000000, 0.0
18, 3.400000, 0.000000, 0.0
19, 3.600000, 0.000000, 0.0
20, 3.800000, 0.000000, 0.0
** ... 2581 like lines cut
*Element, type=CPS4
1, 1, 2, 53, 52
2, 2, 3, 54, 53
3, 3, 4, 55, 54
4, 4, 5, 56, 55
5, 5, 6, 57, 56
6, 6, 7, 58, 57
7, 7, 8, 59, 58
8, 8, 9, 60, 59
9, 9, 10, 61, 60
10, 10, 11, 62, 61
11, 11, 12, 63, 62
12, 12, 13, 64, 63
13, 13, 14, 65, 64
14, 14, 15, 66, 65
15, 15, 16, 67, 66
16, 16, 17, 68, 67
17, 17, 18, 69, 68
18, 18, 19, 70, 69
19, 19, 20, 71, 70
20, 20, 21, 72, 71
** ... 2480 like lines cut
*Elset, elset=AllElements, generate
1, 2500, 1
*Nset, nset=AllNodes, generate
1, 2601, 1
*Nset, nset=LeftEdge, generate
1, 2551, 51
*Nset, nset=RightEdge, generate
51, 2601, 51
*Nset, nset=BottomEdge, generate
1, 51, 1
*Nset, nset=TopEdge, generate
2551, 2601, 1
*Boundary
LeftEdge, 1, 1, 0.0
LeftEdge, 2, 2, 0.0
RightEdge, 1, 1, 0.0
RightEdge, 2, 2, 0.0
BottomEdge, 1, 1, 0.0
BottomEdge, 2, 2, 0.0
TopEdge, 1, 1, 0.0
TopEdge, 2, 2, 0.0
*Material, name=Steel
*Elastic
210000000000.000000, 0.300000
*Step, name=LoadStep, nlgeom=NO
*Static
1., 1., 1e-05, 1.
*Dload, elset=AllElements
P, 1000.000000
*End Step
